{"source": "https://www.rfi.fr/cn/%E5%9B%BD%E9%99%85%E6%8A%A5%E9%81%93/20230618-%E5%B7%B4%E9%BB%8E%E8%88%AA%E7%A9%BA%E5%B1%95%E5%B0%86%E7%99%BB%E5%9C%BA-%E4%B8%93%E5%AE%B6%E9%A2%84%E6%B5%8B%E9%98%B2%E7%A9%BA%E7%B3%BB%E7%BB%9F%E6%98%AF%E4%B8%BB%E8%A7%92", "publisher": "\u6cd5\u65b0\u793e", "title": "\u5df4\u9ece\u822a\u7a7a\u5c55\u5c06\u767b\u573a \u4e13\u5bb6\u9884\u6d4b\u9632\u7a7a\u7cfb\u7edf\u662f\u4e3b\u89d2", "description": "\uff08\u6cd5\u65b0\u793e\u5df4\u9ece18\u65e5\u7535\uff09 \u4e4c\u514b\u5170\u6218\u4e89\u5bc6\u96c6\u4f7f\u7528\u65e0\u4eba\u673a\u548c\u98de\u5f39\uff0c\u66b4\u9732\u51fa\u6b27\u6d32\u56fd\u5bb6\u7684\u9632\u7a7a\u80fd\u529b\u7f3a\u53e3\uff0c\u822a\u7a7a\u8c18\u8be2\u4e1a\u8005\u9884\u6d4b\uff0c\u5728\u660e\u5929\u8d77\u767b\u573a\u7684\u5df4\u9ece\u822a\u7a7a\u5c55\uff08Paris\u2026\u2026", "published time": "2023-06-18T09:32:07+00:00", "modified time": "2023-06-18T09:20:04+00:00", "videos": [], "text": "<img src=\"https://static.rfi.fr/meta_og_twcards/RFI_FB.png\"/>\n<button class=\"m-block-ad__label__report-link\" data-tms-ad-report=\"\" rel=\"noopener\" title=\"\u4e3e\u62a5\u5e7f\u544a\">\n <svg height=\"16.107\" width=\"26.077\" xmlns=\"http://www.w3.org/2000/svg\">\n  <g fill=\"none\" stroke=\"currentColor\">\n   <path d=\"M7.994 15.607a1.5 1.5 0 0 1-1.5-1.5v-3.423H1.325l5.169-4.547V2a1.5 1.5 0 0 1 1.5-1.5h16.083a1.5 1.5 0 0 1 1.5 1.5v12.107a1.5 1.5 0 0 1-1.5 1.5z\">\n   </path>\n   <g stroke-width=\"2\">\n    <path d=\"M16.037 10.504v-7.84M16.037 13.442V11.71\">\n    </path>\n   </g>\n  </g>\n </svg>\n</button>\n<button class=\"m-interstitial__unlock-btn\" data-readmore-unlocker=\"\">\n <span class=\"m-interstitial__unlock-btn__svg\">\n  <svg viewbox=\"0 0 45.414 45.414\" xmlns=\"http://www.w3.org/2000/svg\">\n   <path d=\"m.707 22 22 22 22-22m-22 22V0\" style=\"fill:none;stroke:#9a9a9a;stroke-width:2px\">\n   </path>\n  </svg>\n </span>\n</button>\n<p>\n \u822a\u7a7a\u4e1a\u8005\u300c\u822a\u7a7a\u52a8\u529b\u8c18\u8be2\u300d\uff08AeroDynamic Advisory\uff09\u603b\u88c1\u827e\u6ce2\u62c9\u8d39\uff08Richard Aboulafia\uff09\u544a\u8bc9\u6cd5\u65b0\u793e\uff1a\u300c\u4f60\u4eec\u4f1a\u770b\u5230\u5f88\u591a\u4eba\u5728\u8c08\u98de\u5f39\u751f\u4ea7\u80fd\u529b\u3002\u98de\u5f39\u80af\u5b9a\u662f\u8fd9\u4e2a\u4ea7\u4e1a\u4e2d\u6210\u957f\u6700\u5feb\u7684\u5e02\u573a\uff0c\u4f46\u5236\u9020\u5546\u901f\u5ea6\u5b8c\u5168\u8d76\u4e0d\u4e0a\u3002\u300d\n</p>\n<p>\n \u897f\u65b9\u56fd\u5bb6\u4ece\u51b7\u6218\u7ed3\u675f\u540e\u5f7b\u5e95\u638c\u63e1\u5929\u7a7a\uff0c\u4e14\u5728\u5f88\u5927\u7a0b\u5ea6\u4e0a\u629b\u5f03\u4e86\u8fc7\u53bb\u7528\u4e8e\u4fdd\u536b\u5317\u5927\u897f\u6d0b\u516c\u7ea6\u7ec4\u7ec7\uff08NATO\uff09\u90e8\u961f\u4e0d\u53d7\u82cf\u8054\u98de\u673a\u653b\u51fb\u7684\u5f3a\u5927\u9632\u7a7a\u7cfb\u7edf\u3002\u6cd5\u56fd\u56fd\u4f1a\u8bae\u5458\u5728\u6700\u8fd1\u4e00\u4efd\u62a5\u544a\u4e2d\u5c31\u793a\u8b66\uff0c\u6cd5\u56fd9\u4e2a\u9632\u7a7a\u70ae\u5175\u56e2\u67098\u4e2a\u88ab\u88c1\u64a4\u3002\n</p>\n<p>\n \u4f46\u534e\u5e9c\u667a\u5e93\u300c\u6218\u7565\u66a8\u56fd\u9645\u7814\u7a76\u4e2d\u5fc3\u300d\uff08CSIS\uff09\u9ad8\u7ea7\u987e\u95ee\u574e\u68ee\uff08Mark Cancian\uff09\u8868\u793a\uff0c\u968f\u7740\u6108\u6765\u6108\u591a\u56fd\u5bb6\u53d6\u5f97\u5de1\u5f0b\u98de\u5f39\u3001\u77ed\u7a0b\u5f39\u9053\u98de\u5f39\u548c\u65e0\u4eba\u673a\uff0c\u5317\u7ea6\u56fd\u5bb6\u8fd1\u51e0\u5e74\u53c8\u91cd\u65b0\u6ce8\u91cd\u9632\u7a7a\u3002\n</p>\n<p>\n \u574e\u68ee\u544a\u8bc9\u6cd5\u65b0\u793e\uff1a\u300c\u4ed6\u4eec\u5df2\u7ecf\u8d77\u6b65\uff0c\u4f46\u57fa\u672c\u4e0a\u6ca1\u8d70\u591a\u8fdc\u2026\u6211\u8ba4\u4e3a5\u5e74\u540e\uff08\u9632\u7a7a\u6b66\u5668\uff09\u6570\u91cf\u4f1a\u66f4\u591a\uff0c\u4f46\u8fd9\u5e2e\u4e0d\u4e86\u4e4c\u514b\u5170\u7684\u71c3\u7709\u4e4b\u6025\u3002\u300d\u76ee\u524d\u897f\u65b9\u9632\u7a7a\u7cfb\u7edf\u4e0e\u9632\u7a7a\u98de\u5f39\u77ed\u7f3a\uff0c\u96be\u4ee5\u56e0\u5e94\u4e4c\u514b\u5170\u7684\u77ed\u7a0b\u6216\u957f\u7a0b\u9632\u5fa1\u9700\u6c42\u3002\n</p>\n<p>\n \u5fb7\u56fd\u653f\u5e9c\u5df2\u62e8\u51fa\u4e00\u7b141000\u4ebf\u6b27\u5143\uff08\u7ea6\u65b0\u53f0\u5e013\u51463600\u4ebf\u5143\uff09\u7684\u4e13\u6b3e\uff0c\u672a\u6765\u51e0\u5e74\u5c06\u7528\u4e8e\u91cd\u5efa\u56fd\u9632\u90e8\u961f\uff0c\u5176\u4e2d50\u4ebf\u6b27\u5143\u8ba1\u5212\u7528\u4e8e\u9632\u7a7a\uff0c\u6cd5\u56fd\u653f\u5e9c\u57282030\u5e74\u524d\u6295\u5165\u7684\u9632\u7a7a\u9884\u7b97\u4e5f\u8ddf\u5fb7\u56fd\u76f8\u5f53\u3002\n</p>\n<p>\n \u519b\u5de5\u4ea7\u4e1a\u65b9\u9762\uff0c\u6b27\u6d32\u7684MBDA\u98de\u5f39\u7cfb\u7edf\u516c\u53f8\u8fd1\u51e0\u4e2a\u6708\u5df2\u8ddf\u6cd5\u56fd\u3001\u4e49\u5927\u5229\u7b7e\u7f72\u4ef7\u503c20\u4ebf\u6b27\u5143\u7684\u5408\u7ea6\uff0c\u5c06\u4f9b\u5e94\u4e24\u56fd700\u679a\u7d2b\u82d1\u9632\u7a7a\u98de\u5f39\uff08Aster\uff09\u3002\n</p>\n<p>\n \u6ce2\u5170\u4e5f\u5c06\u65a5\u8d4422\u4ebf\u6b27\u5143\uff0c\u6765\u91c7\u8d2d\u6570\u767e\u679aCAMM\u98de\u5f39\u548c44\u5177\u53d1\u5c04\u5668\u3002\n</p>", "images": ["https://static.rfi.fr/meta_og_twcards/RFI_FB.png"], "imagesn": ["000000.png"]}